[TITLE]
; Titre           Mon Template Chezy-Manning LPS

[JUNCTIONS] ; created by QWater
N1 12 1.203870812575159  
N2 16 1.6203758804329154  
N3 13 2.5161470537708297  
N4 16 1.791542346675829  
N5 19 1.1867541659508676  
N6 18 0.9642377598350799  
N7 16 3.1323463322453184  
N8 17 1.7744257000515375  
N9 15 2.1452863769111836  
N10 16 2.1224641814121283  
N11 17 2.287925098780278  
N12 14 4.336217144820478  
N13 13 5.009471912042605  
N14 15 6.504325717230716  
N15 9 7.365863597320048  
N16 8 5.192049476035045  
N17 17 4.889655385672564  
N18 12 0.8501267823398041  
N19 14 0.6618436694725992  
N20 22 0.7246047070950008  
N21 13 1.4891482563133482  
N22 11 1.5290870984366947  
N23 12 0.9471211132107885  
N24 18 0.9528266620855523  
N25 9 0.8615378800893317  
N26 13 0.8672434289640955  
N27 20 0.8900656244631506  
N28 12 0.8843600755883868  
N29 16 0.827304586840749  
N30 15 1.865714482047758  
N31 15 3.3719793849853974  
N32 18 1.6317869781824428  
N33 12 1.3636261810685448  
N34 8 0.8615378800893317  
N35 13 0.8101879402164577  
N36 18 0.8786545267136231  
N37 14 1.038409895207009  
N38 15 1.0954653839546469  
N39 12 1.0155876997079538  
N40 10 1.4263872186909465  
N41 15 1.4320927675657102  
N42 11 2.527558151520357  
N43 11 3.2635739563648856  
N44 16 3.1095241367462636  
N45 12 2.287925098780278  
N46 11 2.6873135200137432  
N47 13 3.891184332588902  
N48 9 4.575850197560556  
N49 10 3.1152296856210273  
N50 14 1.922769970795396  
N51 9 2.1509919257859473  
N52 10 1.8086589933001203  
N53 15 1.626081429307679  
N54 15 1.5290870984366947  
N55 12 0.8786545267136231  
N56 13 0.8729489778388593  
N57 20 0.639021473973544  
N58 17 0.38797732348393743  
N59 16 0.6333159250987802  
N60 15 0.7417213537192922  
N61 8 0.7074880604707094  
N62 8 0.747426902594056  
N63 14 1.5633203916852774  
N64 10 1.6489036248067341  
N65 10 0.7873657447174025  
N66 12 0.6276103762240165  
N67 9 0.827304586840749  
N68 11 1.7230757601786635  
N69 9 3.1894018209929564  
N70 12 4.27916165607284  
N71 8 4.53591135543721  
N72 5 0.9756488575846074  
N73 11 0.9528266620855523  
N74 8 1.0041766019584264  
N75 13 1.00988215083319  
N76 10 0.9357100154612609  
N77 13 0.8900656244631506  
N78 11 1.3579206321937811  
N79 15 1.3008651434461431  
N80 18 0.8558323312145679  
N81 16 1.3465095344442535  
N82 13 1.255220752448033  
N83 13 1.2951595945713794  
N84 14 1.517676000687167  
N85 12 0.958532210960316  
N86 8 0.8558323312145679  
N87 14 1.865714482047758  
N88 13 1.785836797801065  
N89 16 0.5933770829754338  
N90 16 1.3807428276928362  
N91 11 1.8828311286720494  
N92 9 1.3693317299433088  
N93 15 1.1354042260779935  
N94 16 0.9242989177117333  
N95 13 1.837186737673939  
N96 14 2.076819790414018  
N97 10 1.3921539254423638  
N98 12 1.517676000687167  
N99 13 3.4860903624806734  
N100 13 2.5218526026455934  
N101 6 1.2894540456966157  
N102 10 0.7360158048445284  
N103 14 0.4450328122315753  
N104 14 0.4336217144820477  
N105 15 0.6504325717230716  
N106 14 3.0809963923724446  
N107 9 1.8200700910496477  
N108 16 1.4263872186909465  
N109 16 2.3335694897783883  
N110 16 1.945592166294451  
N111 16 1.6717258203057894  
N112 9 1.7573090534272462  
N113 13 0.8729489778388593  
N114 9 1.8257756399244116  
N115 13 1.7230757601786635  
N116 15 0.7816601958426387  
N117 8 1.6317869781824428  
N118 16 1.9627088129187424  
N119 8 2.1966363167840575  
N120 13 1.7458979556777185  
N121 12 1.6317869781824428  
N122 8 1.5119704518124033  
N123 15 2.3278639409036246  
N124 16 2.3620972341522073  
N125 14 3.200812918742484  
N126 13 3.440445971482563  
N127 13 3.7257234152207523  
N128 11 2.7386634598866175  
N129 15 2.1224641814121283  
N130 10 0.8957711733379145  
N131 10 1.0441154440817728  
N132 4 1.4720316096890569  
N133 13 1.1639319704518123  
N134 11 0.8387156845902766  
N135 12 1.0327043463322454  
N136 5 3.3206294451125236  
N137 15 3.8512454904655558  
N138 15 3.3377460917368147  
N139 18 2.5674969936437035  
N140 19 2.2251640611578765  
N141 17 1.7687201511767736  
N142 15 3.0068242570005155  
N143 15 2.932652121628586  
N144 15 1.1525208727022849  
N145 13 1.6146703315581514  
N146 11 2.1795196701597663  
N147 15 1.6203758804329154  
N148 10 1.494853805188112  
N149 6 0.6903714138464181  
N150 9 0.3708606768596461  
N151 11 0.479266105480158  
N152 10 0.7873657447174025  
N153 7 0.9471211132107885  
N154 4 0.6504325717230716  
N155 11 0.9471211132107885  
N156 9 1.2209874591994503  
N157 10 0.9128878199622058  
N158 11 0.9014767222126782  
N159 8 0.9528266620855523  
N160 12 0.9242989177117333  
N161 10 1.306570692320907  
N162 6 1.1696375193265762  
N163 7 0.5077938498539769  
N164 6 0.7017825115959457  
N165 13 1.0498209929565367  
N166 9 1.888536677546813  
N167 10 2.13958082803642  
N168 10 1.5633203916852774  
N169 11 1.3293928878199621  
N170 9 1.0441154440817728  
N171 13 0.958532210960316  
N172 13 1.0155876997079538  
N173 11 0.7645435492183473  
N174 8 0.5020883009792132  
N175 9 0.6219048273492527  
N176 10 0.6504325717230716  
N177 14 0.38227177460917366  
N178 12 0.43932726335681155  
N179 13 0.8101879402164577  
N180 11 1.0783487373303555  
N181 8 1.1125820305789382  
N182 9 0.958532210960316  
N183 14 0.9185933688369695  
N184 19 1.4720316096890569  
N185 11 1.9627088129187424  
N186 9 1.9284755196701597  
N187 11 1.7287813090534272  
N188 6 2.265102903281223  
N189 12 2.9668854148771686  
N190 4 2.453386016148428  
N191 8 1.255220752448033  
N192 10 3.4746792647311455  
N193 10 2.9668854148771686  
N194 8 2.0140587527916165  
N195 10 1.3122762411956708  
N196 13 0.8215990379659852  

[RESERVOIRS] ; created by QWater

[TANKS] ; created by QWater
R1 27 4.5 0.0 4.5 5.0 10  
R2 32 5.2 0.0 5.2 7.0 10  
R3 50 32.0 0.0 32.0 17.0 10  

[PIPES] ; created by QWater
N142_N143 N142 N143 0.00385894303327062 156.4 0.009 0.0 OPEN 
N144_N145 N144 N145 0.0010362141873469864 156.4 0.009 0.0 OPEN 
N143_N144 N143 N144 0.0007821675303670019 156.4 0.009 0.0 OPEN 
N145_N146 N145 N146 0.0015192860791322666 108.4 0.009 0.0 OPEN 
N146_N147 N146 N147 0.0019359173276687406 94.4 0.009 0.0 OPEN 
N149_N150 N149 N150 0.00027554069011131755 156.4 0.009 0.0 OPEN 
N150_N151 N150 N151 0.00031664582597028967 156.4 0.009 0.0 OPEN 
N151_N152 N151 N152 0.0004416716678253371 156.4 0.009 0.0 OPEN 
N152_N153 N152 N153 0.0008011515444623712 156.4 0.009 0.0 OPEN 
N154_N155 N154 N155 0.00033785702150500774 156.4 0.009 0.0 OPEN 
N153_N154 N153 N154 0.0006940886652355667 156.4 0.009 0.0 OPEN 
N155_N156 N155 N156 0.0011638712325869418 156.4 0.009 0.0 OPEN 
N156_N157 N156 N157 0.0007709549270155892 156.4 0.009 0.0 OPEN 
N157_N158 N157 N158 0.0006759761670642821 156.4 0.009 0.0 OPEN 
N158_N159 N158 N159 0.0007530085479143965 156.4 0.009 0.0 OPEN 
N159_N160 N159 N160 0.0007629504730257528 156.4 0.009 0.0 OPEN 
N160_N161 N160 N161 0.000702073095537111 156.4 0.009 0.0 OPEN 
N161_N162 N161 N162 0.0013613034792208307 156.4 0.009 0.0 OPEN 
N162_N163 N162 N163 0.0004891854005724168 156.4 0.009 0.0 OPEN 
N163_N164 N163 N164 0.00031324174867771674 156.4 0.009 0.0 OPEN 
N164_N165 N164 N165 0.0007991827457338027 156.4 0.009 0.0 OPEN 
N83_N82 N83 N82 0.0013783895944545685 252.0 0.009 0.0 OPEN 
N122_N123 N122 N123 0.0017477681496303648 252.0 0.009 0.0 OPEN 
N123_N124 N123 N124 0.0019479904901917615 252.0 0.009 0.0 OPEN 
N124_N125 N124 N125 0.0018023885450548461 252.0 0.009 0.0 OPEN 
N125_N126 N125 N126 0.003271273237517887 252.0 0.009 0.0 OPEN 
N136_N137 N136 N137 0.003252999521943467 204.2 0.009 0.0 OPEN 
N137_N138 N137 N138 0.002845423006976029 204.2 0.009 0.0 OPEN 
N139_N140 N139 N140 0.0016241271355570076 156.4 0.009 0.0 OPEN 
N138_N139 N138 N139 0.002437833513270918 156.4 0.009 0.0 OPEN 
N140_N141 N140 N141 0.00190100792184214 156.4 0.009 0.0 OPEN 
N141_N142 N141 N142 0.0009002688974843645 156.4 0.009 0.0 OPEN 
N147_N148 N147 N148 0.0006357638231690438 94.4 0.009 0.0 OPEN 
N148_N149 N148 N149 0.0008222868892325921 156.4 0.009 0.0 OPEN 
N148_N166 N148 N166 0.0009124741287930644 156.4 0.009 0.0 OPEN 
N166_N167 N166 N167 0.0020802966654287166 156.4 0.009 0.0 OPEN 
N168_N169 N168 N169 0.001169905005346392 108.4 0.009 0.0 OPEN 
N167_N168 N167 N168 0.0013081752518377297 108.4 0.009 0.0 OPEN 
N169_N170 N169 N170 0.0009426416883442335 94.4 0.009 0.0 OPEN 
N170_N171 N170 N171 0.000715129150417187 94.4 0.009 0.0 OPEN 
N171_N172 N171 N172 0.0008060227603606092 94.4 0.009 0.0 OPEN 
N172_N173 N172 N173 0.00080250993647993 72.8 0.009 0.0 OPEN 
N173_N174 N173 N174 0.00040920989016679434 72.8 0.009 0.0 OPEN 
N174_N175 N174 N175 0.0003890478179644906 72.8 0.009 0.0 OPEN 
N176_N177 N176 N177 0.00043481473975947617 51.4 0.009 0.0 OPEN 
N175_N176 N175 N176 0.0006000429127278439 51.4 0.009 0.0 OPEN 
N177_N178 N177 N178 0.00017147589461670025 51.4 0.009 0.0 OPEN 
N178_N179 N178 N179 0.0005285748691473125 51.4 0.009 0.0 OPEN 
N179_N180 N179 N180 0.0007591420368083501 53.4 0.009 0.0 OPEN 
N180_N181 N180 N181 0.0009497033034887814 72.8 0.009 0.0 OPEN 
N181_N182 N181 N182 0.0008146974723408501 77.2 0.009 0.0 OPEN 
N182_N183 N182 N183 0.0007076757638927189 94.4 0.009 0.0 OPEN 
N183_N184 N183 N184 0.0007537077019547616 94.4 0.009 0.0 OPEN 
N184_N185 N184 N185 0.0015804552667720905 100.0 0.009 0.0 OPEN 
N185_N186 N185 N186 0.0015279914538466933 108.4 0.009 0.0 OPEN 
N186_N187 N186 N187 0.0015287010921941242 156.4 0.009 0.0 OPEN 
N187_N188 N187 N188 0.0012114681429213979 156.4 0.009 0.0 OPEN 
N188_N189 N188 N189 0.002374258258721245 156.4 0.009 0.0 OPEN 
N189_N190 N189 N190 0.002319555913249608 156.4 0.009 0.0 OPEN 
N190_N191 N190 N191 0.0015669267094743525 156.4 0.009 0.0 OPEN 
N71_N70 N71 N70 0.00528145065831234 204.2 0.009 0.0 OPEN 
N68_N67 N68 N67 0.0009068042148123383 156.4 0.009 0.0 OPEN 
N67_N66 N67 N66 0.00040575963077497327 156.4 0.009 0.0 OPEN 
N66_N65 N66 N65 0.0005851298763128611 156.4 0.009 0.0 OPEN 
N65_N64 N65 N64 0.0006602003463815727 156.4 0.009 0.0 OPEN 
N64_N63 N64 N63 0.001953454247779087 156.4 0.009 0.0 OPEN 
N63_N62 N63 N62 0.0005252012972328529 156.4 0.009 0.0 OPEN 
N62_N61 N62 N61 0.0006608135741308307 156.4 0.009 0.0 OPEN 
N60_N59 N60 N59 0.0007139415562128698 156.4 0.009 0.0 OPEN 
N61_N60 N61 N60 0.00045811744576681085 156.4 0.009 0.0 OPEN 
N59_N58 N59 N58 0.00029369548468527587 156.4 0.009 0.0 OPEN 
N58_N57 N58 N57 0.00032912522592778195 156.4 0.009 0.0 OPEN 
N57_N56 N57 N56 0.0006865669849206715 204.2 0.009 0.0 OPEN 
N56_N55 N56 N55 0.0006966921463857067 204.2 0.009 0.0 OPEN 
N55_N54 N55 N54 0.000699090405273359 204.2 0.009 0.0 OPEN 
N54_N53 N54 N53 0.00172973478190444 204.2 0.009 0.0 OPEN 
N53_N52 N53 N52 0.000851695524838745 204.2 0.009 0.0 OPEN 
N72_N73 N72 N73 0.0007225612468881611 252.0 0.009 0.0 OPEN 
N74_N75 N74 N75 0.0008042599420540329 252.0 0.009 0.0 OPEN 
N73_N74 N73 N74 0.0007891848758029114 252.0 0.009 0.0 OPEN 
N75_N76 N75 N76 0.0007964807268038977 252.0 0.009 0.0 OPEN 
N76_N77 N76 N77 0.0006885728152199779 252.0 0.009 0.0 OPEN 
N77_N78 N77 N78 0.0007224315181531488 252.0 0.009 0.0 OPEN 
N78_N79 N78 N79 0.001424028645163125 252.0 0.009 0.0 OPEN 
N80_N79 N80 N79 0.0006365247813647863 252.0 0.009 0.0 OPEN 
N40_N39 N40 N39 0.0007845393183026091 394.6 0.009 0.0 OPEN 
N39_N38 N39 N38 0.0008218971882654007 394.6 0.009 0.0 OPEN 
N38_N37 N38 N37 0.0009095170846790523 394.6 0.009 0.0 OPEN 
N36_N35 N36 N35 0.0006640224684462065 394.6 0.009 0.0 OPEN 
N37_N36 N37 N36 0.0007347810411140689 394.6 0.009 0.0 OPEN 
N35_N34 N35 N34 0.0006235914758215661 394.6 0.009 0.0 OPEN 
N34_N33 N34 N33 0.0007449878276492866 394.6 0.009 0.0 OPEN 
N33_N32 N33 N32 0.0014176202055513707 394.6 0.009 0.0 OPEN 
N16_N15 N16 N15 0.004481418765831552 156.4 0.009 0.0 OPEN 
N15_N14 N15 N14 0.007182317545707329 156.4 0.009 0.0 OPEN 
N14_N13 N14 N13 0.0031195716598976897 156.4 0.009 0.0 OPEN 
N13_N12 N13 N12 0.004816261476313049 204.2 0.009 0.0 OPEN 
N11_N10 N11 N10 0.001573586402903028 204.2 0.009 0.0 OPEN 
N12_N11 N12 N11 0.002053985284498448 204.2 0.009 0.0 OPEN 
N10_N9 N10 N9 0.0017891236929578353 204.2 0.009 0.0 OPEN 
N9_N8 N9 N8 0.0016066291582585762 204.2 0.009 0.0 OPEN 
N106_N107 N106 N107 0.001969897335971415 299.8 0.009 0.0 OPEN 
N6_N7 N6 N7 0.0008481945078101207 489.4 0.009 0.0 OPEN 
N7_N106 N7 N106 0.0029086525242774898 299.8 0.009 0.0 OPEN 
N107_N108 N107 N108 0.0009115464386508831 299.8 0.009 0.0 OPEN 
N108_N109 N108 N109 0.0013482574355891642 299.8 0.009 0.0 OPEN 
N109_N110 N109 N110 0.002349751931719163 299.8 0.009 0.0 OPEN 
N110_N121 N110 N121 0.0007283395079107837 299.8 0.009 0.0 OPEN 
N121_N120 N121 N120 0.0012008840087177383 108.4 0.009 0.0 OPEN 
N121_N122 N121 N122 0.0006526941172694587 252.0 0.009 0.0 OPEN 
N119_N118 N119 N118 0.0019180665134812557 100.0 0.009 0.0 OPEN 
N120_N119 N120 N119 0.0015624082990355766 100.0 0.009 0.0 OPEN 
N118_N117 N118 N117 0.001190001833406963 100.0 0.009 0.0 OPEN 
N117_N195 N117 N195 0.001396110736650789 51.4 0.009 0.0 OPEN 
N195_N116 N195 N116 0.0006853762982503859 51.4 0.009 0.0 OPEN 
N116_N115 N116 N115 0.0005487589761567555 51.4 0.009 0.0 OPEN 
N115_N114 N115 N114 0.002175089671494919 51.4 0.009 0.0 OPEN 
N114_N113 N114 N113 0.0007179694968695858 100.0 0.009 0.0 OPEN 
N112_N111 N112 N111 0.00211276000482144 100.0 0.009 0.0 OPEN 
N113_N112 N113 N112 0.0006668395461124285 100.0 0.009 0.0 OPEN 
N52_N42 N52 N42 0.0020161928535263832 204.2 0.009 0.0 OPEN 
N42_N72 N42 N72 0.0008223043704499264 252.0 0.009 0.0 OPEN 
N41_N40 N41 N40 0.0008476973321680426 394.6 0.009 0.0 OPEN 
N111_N42 N111 N42 0.0005322997788340889 156.4 0.009 0.0 OPEN 
N32_N31 N32 N31 0.0011672925839514474 394.6 0.009 0.0 OPEN 
N31_N30 N31 N30 0.002264272852701755 489.4 0.009 0.0 OPEN 
N30_N29 N30 N29 0.0006880865005787184 489.4 0.009 0.0 OPEN 
N29_N196 N29 N196 0.0006231403994833666 489.4 0.009 0.0 OPEN 
N196_N28 N196 N28 0.0006747243256711761 489.4 0.009 0.0 OPEN 
N27_N26 N27 N26 0.0006877945467431121 489.4 0.009 0.0 OPEN 
N28_N27 N28 N27 0.0007254463250261495 489.4 0.009 0.0 OPEN 
N26_N25 N26 N25 0.0006877945467433259 489.4 0.009 0.0 OPEN 
N25_N24 N25 N24 0.0006758545345701123 489.4 0.009 0.0 OPEN 
N24_N23 N24 N23 0.000832403110051186 489.4 0.009 0.0 OPEN 
N23_N22 N23 N22 0.000668904535294487 489.4 0.009 0.0 OPEN 
N22_N21 N22 N21 0.001754229817534918 489.4 0.009 0.0 OPEN 
N21_N20 N21 N20 0.0006027147311184921 489.4 0.009 0.0 OPEN 
N20_N19 N20 N19 0.0005415625504162254 489.4 0.009 0.0 OPEN 
N19_N18 N19 N18 0.0005036429417438389 489.4 0.009 0.0 OPEN 
N18_N3 N18 N3 0.0008402003300864125 489.4 0.009 0.0 OPEN 
N3_N4 N3 N4 0.0016392264595477641 489.4 0.009 0.0 OPEN 
N4_N5 N4 N5 0.0012029498498939857 489.4 0.009 0.0 OPEN 
N8_N7 N8 N7 0.0012047183467927677 204.2 0.009 0.0 OPEN 
N5_N6 N5 N6 0.0006815364053972889 489.4 0.009 0.0 OPEN 
N70_N69 N70 N69 0.0015011490176902941 252.0 0.009 0.0 OPEN 
N69_N68 N69 N68 0.001827435676723107 156.4 0.009 0.0 OPEN 
N69_N51 N69 N51 0.0017259454272735514 204.2 0.009 0.0 OPEN 
N51_N50 N51 N50 0.0016804006601733132 204.2 0.009 0.0 OPEN 
N50_N49 N50 N49 0.0013695628012427167 204.2 0.009 0.0 OPEN 
N48_N47 N48 N47 0.0036811218761796773 252.0 0.009 0.0 OPEN 
N49_N48 N49 N48 0.0035704377348699857 204.2 0.009 0.0 OPEN 
N47_N46 N47 N46 0.0024846607766811483 252.0 0.009 0.0 OPEN 
N46_N45 N46 N45 0.0017686926689941325 252.0 0.009 0.0 OPEN 
N45_N44 N45 N44 0.0018549853321852185 252.0 0.009 0.0 OPEN 
N31_N17 N31 N17 0.0019104633368773342 394.6 0.009 0.0 OPEN 
N17_N16 N17 N16 0.003745452105219625 94.4 0.009 0.0 OPEN 
N44_N43 N44 N43 0.003070460691714611 252.0 0.009 0.0 OPEN 
N43_N17 N43 N17 0.00210038209547615 252.0 0.009 0.0 OPEN 
N165_N84 N165 N84 0.0008679225730449645 204.2 0.009 0.0 OPEN 
N84_N83 N84 N83 0.0006740095330592549 204.2 0.009 0.0 OPEN 
N84_N85 N84 N85 0.0008594834934911395 156.4 0.009 0.0 OPEN 
N85_N86 N85 N86 0.0006627104689745173 156.4 0.009 0.0 OPEN 
N86_N87 N86 N87 0.0006966921463857067 156.4 0.009 0.0 OPEN 
N87_N88 N87 N88 0.002261519827889998 156.4 0.009 0.0 OPEN 
N88_N89 N88 N89 0.0005686034724326598 156.4 0.009 0.0 OPEN 
N89_N90 N89 N90 0.00037100816436672963 156.4 0.009 0.0 OPEN 
N90_N91 N90 N91 0.0018197553979764803 156.4 0.009 0.0 OPEN 
N91_N92 N91 N92 0.0011652604817420334 156.4 0.009 0.0 OPEN 
N92_N93 N92 N93 0.0010040905094101822 108.4 0.009 0.0 OPEN 
N93_N94 N93 N94 0.000794780982573369 108.4 0.009 0.0 OPEN 
N94_N95 N94 N95 0.0006675419579877162 97.8 0.009 0.0 OPEN 
N96_N97 N96 N97 0.001052061619478544 72.8 0.009 0.0 OPEN 
N95_N96 N95 N96 0.0022430487660117567 94.4 0.009 0.0 OPEN 
N97_N98 N97 N98 0.0011534803055837436 54.6 0.009 0.0 OPEN 
N98_N99 N98 N99 0.0012456360041669667 51.4 0.009 0.0 OPEN 
N194_N99 N99 N194 0.0016589729751271276 156.4 0.009 0.0 OPEN 
N99_N100 N100 N99 0.002611237046467046 94.4 0.009 0.0 OPEN 
N193_N194 N194 N193 0.001531378980447301 156.4 0.009 0.0 OPEN 
N192_N193 N193 N192 0.003169231438744501 156.4 0.009 0.0 OPEN 
N191_N192 N191 N192 0.00042434174662917055 156.4 0.009 0.0 OPEN 
N192_N71 N192 N71 0.0019036034487939205 204.2 0.009 0.0 OPEN 
N82_N81 N82 N81 0.0006186548344171901 252.0 0.009 0.0 OPEN 
N81_N80 N81 N80 0.00072671876385373 252.0 0.009 0.0 OPEN 
N81_N135 N81 N135 0.000790736061210858 72.8 0.009 0.0 OPEN 
N135_N134 N135 N134 0.0008414742784777191 51.4 0.009 0.0 OPEN 
N134_N133 N134 N133 0.00048819902820037837 51.4 0.009 0.0 OPEN 
N133_N132 N133 N132 0.0013572153975992345 51.4 0.009 0.0 OPEN 
N132_N131 N132 N131 0.0009763157721982586 97.8 0.009 0.0 OPEN 
N131_N130 N131 N130 0.000678227765497644 108.4 0.009 0.0 OPEN 
N130_N129 N130 N129 0.0007444124640834692 108.4 0.009 0.0 OPEN 
N126_N127 N126 N127 0.0021750588914156697 252.0 0.009 0.0 OPEN 
N127_N136 N127 N136 0.0020116451942765877 204.2 0.009 0.0 OPEN 
N129_N128 N129 N128 0.0026207122968033764 156.4 0.009 0.0 OPEN 
N128_N127 N128 N127 0.0017139077242675443 156.4 0.009 0.0 OPEN 
N105_R1 R1 N105 0.00027127116549450857 51.4 0.009 0.0 CV 
N104_N105 N105 N104 0.0004873892627348335 51.4 0.009 0.0 OPEN 
N103_N104 N104 N103 0.00019557080510833818 51.4 0.009 0.0 OPEN 
N102_N103 N103 N102 0.0005091777025001652 72.8 0.009 0.0 OPEN 
N100_N101 N101 N100 0.0013803389254665403 77.2 0.009 0.0 OPEN 
N101_N102 N102 N101 0.0006589280466546335 72.8 0.009 0.0 OPEN 
R3_N1 R3 N1 0.000422550045479901 700.0 0.009 0.0 OPEN 
N1_N2 N1 N2 0.0010592749052984879 700.0 0.009 0.0 OPEN 
N2_N3 N2 N3 0.0015091433766915045 700.0 0.009 0.0 OPEN 
R2_N41 R2 N41 8.480229225883294e-05 51.4 0.009 0.0 CV 
N41_N42 N41 N42 0.0006301617786627313 394.6 0.009 0.0 OPEN 

[PUMPS] ; created by QWater

[VALVES] ; created by QWater

[TAGS]

[DEMANDS]
;Junction        	Demand      	Pattern         	Category

[STATUS]
;ID              	Status/Setting

[PATTERNS]
;ID              	Multipliers

[CURVES] ; created by QWater
;ID              	X-Value     	Y-Value
;PUMP:  Pompe de surpression destinée à augmenter la pression et assurer une desserte adéquate pour la Zone Ouest du réseau. Elle est typiquement installée pour compenser les pertes de charge importantes ou pour alimenter des secteurs topographiquement plus élevés non atteignables avec la pression du réseau principal
 PmpSO	0.0	95.0
 PmpSO	101.0	80.0
 PmpSO	131.0	65.0
[CONTROLS]

[RULES]

[ENERGY]
 Global Efficiency  	75
 Global Price       	0
 Demand Charge      	0

[EMITTERS]
;Junction        	Coefficient

[QUALITY]
;Node            	InitQual

[SOURCES]
;Node            	Type        	Quality     	Pattern

; La section [REACTIONS] apparaît deux fois. Normalement, il ne devrait y en avoir qu'une.

[REACTIONS] ; Première instance - généralement pour les paramètres de base
 Order Bulk            	1
 Order Tank            	1
 Order Wall            	1
 Global Bulk           	0    ; Peut être laissé à 0 ou commenté si non utilisé
 Global Wall           	0    ; Peut être laissé à 0 ou commenté si non utilisé
 Limiting Potential    	0    ; Peut être laissé à 0 ou commenté si non utilisé
 Roughness Correlation 	0    ; Peut être laissé à 0 ou commenté si non utilisé

; Pour un template hydraulique simple, on peut commenter ces lignes :
; Order Bulk            	1
; Order Tank            	1
; Order Wall            	1
; Global Bulk           	0
; Global Wall           	0
; Limiting Potential    	0
; Roughness Correlation 	0

[MIXING]
;Tank            	Model

[TIMES]
 Duration           	0       ; Pour une simulation statique (steady-state)
 Hydraulic Timestep 	1:00    ; Non pertinent pour une simulation statique si Duration = 0
 Quality Timestep   	0:05    ; Non pertinent pour une simulation hydraulique pure
 Pattern Timestep   	1:00
 Pattern Start      	0:00
 Report Timestep    	1:00
 Report Start       	0:00
 Start ClockTime    	12 am
 Statistic          	None    ; 'AVERAGED' ou 'RANGE' pour les simulations dynamiques

[REPORT]
 Status             	YES      ; Mettre 'YES' pour avoir un rapport de statut plus détaillé
 Summary            	YES      ; Mettre 'YES' pour un résumé
 Page               	0       ; Taille de page pour l'impression du rapport

[OPTIONS]
 Units                  LPS	
 Headloss           	C-M     ; <<< MODIFICATION PRINCIPALE ICI : Changer D-W en C-M
 Specific Gravity   	1
 Viscosity          	1       ; Coefficient de viscosité cinématique (non utilisé par C-M ou H-W, mais utilisé par D-W)
 Trials             	40
 Accuracy           	0.001
 CHECKFREQ          	2
 MAXCHECK           	10
 DAMPLIMIT          	0
 Unbalanced         	Continue 10
 Pattern            	1
 Demand Multiplier  	1.0
 Emitter Exponent   	0.5
 Quality            	None mg/L ; Spécifie la qualité de l'eau par défaut
 Diffusivity        	1       ; Coefficient de diffusivité moléculaire (pour qualité d'eau, non utilisé par C-M)
 Tolerance          	0.01    ; Tolérance pour la qualité de l'eau

[COORDINATES] ; created by QWater
N1 1.2161551029316355 6.276692721128661
N2 1.2158626675202542 6.275674612659408
N3 1.2153717313520336 6.27424755435291
N4 1.2137778623525 6.274630496904747
N5 1.2125824606028497 6.2747650442878244
N6 1.2119200734861604 6.274925466167647
N7 1.2110914427278796 6.275106587644867
N8 1.2112777391044485 6.276296814495168
N9 1.211577883266698 6.277875158796654
N10 1.2118728525295985 6.279639799474709
N11 1.2119090768250425 6.281212968876846
N12 1.212157471993801 6.283251879220406
N13 1.2168873299989102 6.282343684384634
N14 1.218957289738564 6.2800098047781745
N15 1.22607018889395 6.279013636653466
N16 1.22861365192405 6.275323933417532
N17 1.2273451547210938 6.271799826960771
N18 1.2161790156504986 6.274014683882199
N19 1.2166758059880156 6.273931885492613
N20 1.2171622465268344 6.273693840122553
N21 1.217684911361097 6.273393695960303
N22 1.219252905863885 6.2726071112592345
N23 1.2191597576756006 6.271944724142545
N24 1.2199618670747165 6.271722203470532
N25 1.220603554594009 6.2715100325972175
N26 1.2212711166100476 6.271344435818045
N27 1.2219386786260862 6.271178839038873
N28 1.2226424649375685 6.271002892461003
N29 1.2238844407813607 6.270640649506563
N30 1.22454682789805 6.2704543531299946
N31 1.2267610379570597 6.269980849839549
N32 1.226424669499366 6.268863071580136
N33 1.2260106775514348 6.267507247950664
N34 1.2257519325839783 6.266808636538531
N35 1.2255656362074094 6.266213523113381
N36 1.225394864528888 6.265571835594088
N37 1.2251671689575259 6.2648732241819545
N38 1.2247583519089444 6.264060764984141
N39 1.2244116336525523 6.263315579477865
N40 1.2239458927111302 6.26268424175727
N41 1.2234689274191548 6.261983460138493
N42 1.2230972092178716 6.261474609034415
N43 1.2294396952326565 6.271956367666083
N44 1.2300930262754846 6.268956219768421
N45 1.2314397938310973 6.2676806070788595
N46 1.2328693597762956 6.268722055572873
N47 1.2345408522660668 6.266883672579094
N48 1.2377065969429004 6.265005184115358
N49 1.2358177586804662 6.261975280546439
N50 1.2363662980114747 6.260720367454275
N51 1.2359005570700523 6.259105798857345
N52 1.2250636709705427 6.261029567690389
N53 1.2258864799670555 6.260809634468051
N54 1.2275709097051988 6.260416342117517
N55 1.2282488215199356 6.260245570438994
N56 1.2289215584353232 6.260064448961774
N57 1.2295891204513616 6.2599040270819515
N58 1.2299047893116588 6.259810878893667
N59 1.2301894087758611 6.259738430302779
N60 1.2308789641141333 6.2595534276510465
N61 1.2313240054581591 6.259444754764715
N62 1.2311661710280104 6.258803067245423
N63 1.231062673041028 6.258288164760184
N64 1.232946336404113 6.25777067482527
N65 1.2335983737221041 6.257667176838288
N66 1.2341831373485563 6.257687876435684
N67 1.234586779497789 6.257729275630477
N68 1.2354923868838874 6.257775849724621
N69 1.2372932518573863 6.258086343685569
N70 1.2383903305194033 6.2570617136144415
N71 1.239673705557989 6.251938563258799
N72 1.2225641945849106 6.260848446213169
N73 1.2221191532408848 6.260279207284763
N74 1.2216068382053205 6.2596789189602635
N75 1.2211152227671527 6.25904240634032
N76 1.2205977328322393 6.258436943116471
N77 1.220168216186261 6.257898753584161
N78 1.2196921254461406 6.257355389152502
N79 1.2188065707950204 6.256240198342764
N80 1.2189404713156784 6.255617916696032
N81 1.2190439693026611 6.254898605686504
N82 1.21923026567923 6.254308667160703
N83 1.2194786608479884 6.252952843531229
N84 1.220151397763376 6.2529942427260226
N85 1.220971619310215 6.253251047106213
N86 1.2216133068295076 6.2534166438853855
N87 1.2222860437448952 6.253597765362605
N88 1.2245112504650233 6.254001407511837
N89 1.2249407671110015 6.2536288147587005
N90 1.2251270634875704 6.253307970999054
N91 1.2254220327504715 6.251512280924902
N92 1.2256704279192299 6.250373803068092
N93 1.2259188230879883 6.249400921990454
N94 1.2267054077890573 6.249514769776135
N95 1.2273677949057467 6.249597568165721
N96 1.2295981765252235 6.24983561353578
N97 1.2306383312943996 6.249993447965928
N98 1.2317871589499076 6.250096945952911
N99 1.2330187849950018 6.25028324232948
N100 1.2336578850646207 6.247751422822908
N101 1.2338260692934675 6.246381368220228
N102 1.233788551273186 6.245723509140468
N103 1.2334353643926075 6.245356738149098
N104 1.233259417814737 6.245271352309837
N105 1.2328169639203859 6.245066943785546
N106 1.2105170289001257 6.272255218103494
N107 1.2101237365495916 6.270324980646268
N108 1.2099270903743244 6.269434897958216
N109 1.2096269462120746 6.268120473523534
N110 1.209026657887575 6.265848692709263
N111 1.2225900690816582 6.261636324639068
N112 1.220551158738099 6.262190038869425
N113 1.219899121420108 6.262329761151852
N114 1.2192005100079748 6.262495357931025
N115 1.2170891510735278 6.263018022765287
N116 1.2165613113399159 6.263168094846412
N117 1.214548275493102 6.2636959345800225
N118 1.213389098038896 6.263965029346178
N119 1.2115364840719056 6.264461819683695
N120 1.2100357632606564 6.264896511229022
N121 1.2088597673835637 6.265139731498438
N122 1.2086941706043914 6.264508393777843
N123 1.208373326844745 6.2627903271939305
N124 1.2082801786564605 6.260844565038656
N125 1.2084354256369347 6.259048874964507
N126 1.2087045204030897 6.255788688374551
N127 1.2089322159744518 6.253625580446613
N128 1.2106399327596675 6.253771124490793
N129 1.2132532569309806 6.25396777066606
N130 1.213988092638558 6.2540867933510915
N131 1.2146660044532946 6.2541074929484886
N132 1.2156337106315829 6.254236865432216
N133 1.2169584848649615 6.2545318346951175
N134 1.2174449254037802 6.254573233889911
N135 1.218272909299642 6.254723305971035
N136 1.209170261344512 6.251628069297846
N137 1.2095635536950464 6.248398932103985
N138 1.209977545642977 6.245583786858056
N139 1.2101431424221494 6.243151584163963
N140 1.2103190890000202 6.241537015567034
N141 1.2105338473230085 6.2396481773046055
N142 1.2114187551117106 6.239482580525434
N143 1.215011596196533 6.240890747515971
N144 1.215647836453352 6.241345702877697
N145 1.216524219075091 6.241898598294909
N146 1.2180115768825086 6.241588764560531
N147 1.2198486661514516 6.240978126437333
N148 1.2204283427682596 6.241239221551758
N149 1.220452877716842 6.242061142329267
N150 1.2205326162997348 6.242324893026527
N151 1.22048354640257 6.242637713620953
N152 1.220557151248317 6.24307320895829
N153 1.2207166284141022 6.2438583273129264
N154 1.2208515706313052 6.244539172136087
N155 1.2208331694198684 6.244876527679095
N156 1.221073096344715 6.246015400506401
N157 1.2214229846233173 6.246702386453846
N158 1.2212975687009697 6.247366626338873
N159 1.221206691095335 6.248114130943558
N160 1.2210987 6.2488694
N161 1.2210337181024031 6.249568459356895
N162 1.220826722128438 6.25091393318767
N163 1.2207749731349467 6.251400373726488
N164 1.2204644791739987 6.251358974531695
N165 1.220355806287667 6.252150734132114
N166 1.2213157501169323 6.241451629727774
N167 1.2233805349572373 6.241705199795882
N168 1.2246846095932191 6.241808697782865
N169 1.2258489619467745 6.241694849997184
N170 1.226707995238731 6.241306732545998
N171 1.2273496827580237 6.240991063685702
N172 1.2280845184656008 6.240659870127358
N173 1.2288245290725273 6.240349376166409
N174 1.2291712473289191 6.240132030393745
N175 1.2295127906859622 6.2399457340171764
N176 1.2300613300169705 6.239702513747766
N177 1.2304960215622978 6.239692163949068
N178 1.230511546260345 6.239521392270547
N179 1.2310135114972112 6.239355795491375
N180 1.2317586970034866 6.239210898309599
N181 1.2326694792889343 6.238941803543444
N182 1.2333111668082273 6.238439838306578
N183 1.233694109360063 6.239034951731728
N184 1.2340977515092955 6.239671464351673
N185 1.2349516099019027 6.2410014134844
N186 1.2357174950055747 6.242323600268104
N187 1.2365066671563179 6.243632849803436
N188 1.2372622024612916 6.244579856384328
N189 1.2391665654217734 6.2459977788059895
N190 1.2386283758894636 6.248254034922215
N191 1.2392493638113597 6.249692656941274
N192 1.2391562156230753 6.250106648889205
N193 1.236118549705134 6.251010315688033
N194 1.2346540531893284 6.250562686894333
N195 1.2158937493238775 6.263323341826886
N196 1.2232738026581629 6.270764847090943
R1 1.2329531375 6.244832327499999
R2 1.2235468 6.261949885
R3 1.2160105185891477 6.277089765092024
[VERTICES]
;Link            	X-Coord         	Y-Coord

[LABELS]
;X-Coord           Y-Coord          Label & Anchor Node

[BACKDROP]

[END]
