[TITLE]
LCPI Network Analysis - Robust

[JUNCTIONS]
;ID	Elev	Demand
A01	58	2097
A01_1	44	348
A01_2	43	609
A01_3	41	581
A01_4	47	446
A02	46	2787
A02_2	49	635
A03	56	1528
A03_1	50	506
A03_3	43	487
A04	52	2280
A05	45	2262
A05_1	44	552
A05_2	44	391
A06	45	1965
A06_1	47	457
A06_2	47	351
A06_3	50	484
A06_4	50	598
A07	51	2177
A08	42	1660
A08_1	48	579
A08_2	47	672
A08_3	46	683
A09	50	2021
A09_1	43	301
A09_2	43	637
A10	54	2073
A11	49	1701
A11_1	47	551
A11_2	41	354
A11_3	48	631
A11_4	40	420
A12	50	2728
A12_1	49	481
A12_3	40	434
A13	42	2325
A13_1	49	615
A13_2	48	653
A14	50	2822
A14_1	43	603
A14_2	44	647
A14_3	50	394
A14_4	46	323
A15	59	2433
A15_1	50	390
A15_3	50	364
A16	56	2908
A16_1	45	573
A16_2	47	414
A16_3	44	607
A17	46	1951
A17_1	45	614
A17_2	47	535
A17_3	45	337
A17_4	40	506
A18	47	2770
A18_1	44	691
A18_2	45	373
A19	48	2137
A19_1	44	478
A19_2	47	470
A19_3	45	304
A20	59	2459
A20_1	48	300
A20_2	42	362
A20_3	42	631
A20_4	44	321
SP1	80	0
SP2	85	0
SP3	90	0
SP4	95	0
SP5	100	0

[RESERVOIRS]
;ID	Head
R1	100
R2	110
R3	120

[PIPES]
;ID	Node1	Node2	Length	Diameter	Roughness	MinorLoss	Status
P0001	R1	SP2	1248.0	1.0	130.0	0	Open
P0002	R1	SP3	1321.0	0.8	140.0	0	Open
P0003	R1	SP4	977.0	1.2	130.0	0	Open
P0004	R1	SP5	1461.0	1.0	140.0	0	Open
P0005	R2	SP1	1260.0	1.2	120.0	0	Open
P0006	R2	SP3	978.0	0.6	120.0	0	Open
P0007	R2	SP4	1304.0	1.2	130.0	0	Open
P0008	R2	SP5	693.0	1.0	130.0	0	Open
P0009	R3	SP2	1377.0	0.6	140.0	0	Open
P0010	R3	SP3	557.0	0.8	140.0	0	Open
P0011	R3	SP4	1168.0	0.6	140.0	0	Open
P0012	R3	SP5	1039.0	1.2	120.0	0	Open
P0013	SP1	A01	1647.0	0.6	140.0	0	Open
P0014	SP1	A03	1364.0	0.6	140.0	0	Open
P0015	SP1	A04	2602.0	0.4	120.0	0	Open
P0016	SP1	A07	2309.0	0.5	130.0	0	Open
P0017	SP1	A08	1980.0	0.5	140.0	0	Open
P0018	SP1	A09	1089.0	0.8	140.0	0	Open
P0019	SP1	A10	1574.0	0.6	120.0	0	Open
P0020	SP1	A11	1710.0	0.8	130.0	0	Open
P0021	SP1	A12	2258.0	0.6	120.0	0	Open
P0022	SP1	A13	2267.0	0.5	130.0	0	Open
P0023	SP1	A14	1964.0	0.5	120.0	0	Open
P0024	SP1	A15	2253.0	0.6	130.0	0	Open
P0025	SP1	A17	2269.0	0.4	130.0	0	Open
P0026	SP1	A18	2319.0	0.5	120.0	0	Open
P0027	SP1	A19	2900.0	0.6	140.0	0	Open
P0028	SP1	A20	1599.0	0.8	140.0	0	Open
P0029	SP2	A05	2820.0	0.6	120.0	0	Open
P0030	SP2	A07	2838.0	0.6	140.0	0	Open
P0031	SP2	A08	2554.0	0.8	140.0	0	Open
P0032	SP2	A11	1503.0	0.5	120.0	0	Open
P0033	SP2	A12	1003.0	0.5	120.0	0	Open
P0034	SP2	A15	1117.0	0.5	140.0	0	Open
P0035	SP2	A16	1507.0	0.4	120.0	0	Open
P0036	SP3	A01	2850.0	0.4	140.0	0	Open
P0037	SP3	A02	2852.0	0.8	130.0	0	Open
P0038	SP3	A03	1952.0	0.6	120.0	0	Open
P0039	SP3	A04	2783.0	0.5	130.0	0	Open
P0040	SP3	A05	1349.0	0.4	130.0	0	Open
P0041	SP3	A06	1257.0	0.6	130.0	0	Open
P0042	SP3	A07	1325.0	0.6	140.0	0	Open
P0043	SP3	A08	1710.0	0.6	140.0	0	Open
P0044	SP3	A09	1808.0	0.5	120.0	0	Open
P0045	SP3	A10	2177.0	0.8	120.0	0	Open
P0046	SP3	A11	1087.0	0.4	130.0	0	Open
P0047	SP3	A15	2703.0	0.5	120.0	0	Open
P0048	SP3	A17	1049.0	0.5	140.0	0	Open
P0049	SP3	A18	2726.0	0.6	120.0	0	Open
P0050	SP3	A19	1238.0	0.8	130.0	0	Open
P0051	SP3	A20	2887.0	0.6	130.0	0	Open
P0052	SP4	A01	1636.0	0.6	130.0	0	Open
P0053	SP4	A02	1326.0	0.5	120.0	0	Open
P0054	SP4	A03	1907.0	0.5	120.0	0	Open
P0055	SP4	A04	2894.0	0.5	120.0	0	Open
P0056	SP4	A06	1594.0	0.4	130.0	0	Open
P0057	SP4	A07	2179.0	0.5	140.0	0	Open
P0058	SP4	A08	2266.0	0.6	130.0	0	Open
P0059	SP4	A09	1275.0	0.4	140.0	0	Open
P0060	SP4	A10	2287.0	0.8	120.0	0	Open
P0061	SP4	A11	2365.0	0.5	130.0	0	Open
P0062	SP4	A12	1053.0	0.8	130.0	0	Open
P0063	SP4	A13	1087.0	0.6	130.0	0	Open
P0064	SP4	A14	2513.0	0.4	120.0	0	Open
P0065	SP4	A15	1683.0	0.4	140.0	0	Open
P0066	SP4	A19	2682.0	0.5	130.0	0	Open
P0067	SP4	A20	2901.0	0.4	130.0	0	Open
P0068	SP5	A01	2412.0	0.4	120.0	0	Open
P0069	SP5	A04	2308.0	0.6	120.0	0	Open
P0070	SP5	A05	2431.0	0.6	120.0	0	Open
P0071	SP5	A06	1915.0	0.6	140.0	0	Open
P0072	SP5	A09	1270.0	0.8	140.0	0	Open
P0073	SP5	A10	2391.0	0.6	130.0	0	Open
P0074	SP5	A12	1850.0	0.8	120.0	0	Open
P0075	SP5	A14	2240.0	0.5	140.0	0	Open
P0076	SP5	A16	2109.0	0.5	140.0	0	Open
P0077	SP5	A17	1391.0	0.4	120.0	0	Open
P0078	SP5	A19	2941.0	0.5	120.0	0	Open
P0079	SP5	A20	2794.0	0.8	120.0	0	Open
P0080	A01	A05	1258.0	0.4	130.0	0	Open
P0081	A01	A08	2329.0	0.3	120.0	0	Open
P0082	A01	A09	889.0	0.3	130.0	0	Open
P0083	A01	A15	1815.0	0.5	140.0	0	Open
P0084	A01	A16	1380.0	0.5	120.0	0	Open
P0085	A01	A19	1729.0	0.3	120.0	0	Open
P0086	A02	A08	1788.0	0.4	120.0	0	Open
P0087	A02	A10	1328.0	0.4	140.0	0	Open
P0088	A02	A14	1295.0	0.5	130.0	0	Open
P0089	A03	A04	1221.0	0.3	130.0	0	Open
P0090	A03	A05	2467.0	0.3	120.0	0	Open
P0091	A03	A08	1137.0	0.6	140.0	0	Open
P0092	A03	A10	2451.0	0.4	120.0	0	Open
P0093	A03	A12	2333.0	0.4	120.0	0	Open
P0094	A03	A13	1627.0	0.3	130.0	0	Open
P0095	A03	A14	1068.0	0.4	140.0	0	Open
P0096	A03	A19	2474.0	0.4	140.0	0	Open
P0097	A04	A13	1733.0	0.4	140.0	0	Open
P0098	A04	A14	1746.0	0.5	140.0	0	Open
P0099	A04	A17	1972.0	0.4	140.0	0	Open
P0100	A04	A19	2081.0	0.5	130.0	0	Open
P0101	A04	A20	832.0	0.3	140.0	0	Open
P0102	A05	A07	1307.0	0.6	120.0	0	Open
P0103	A05	A10	1188.0	0.5	120.0	0	Open
P0104	A05	A11	1517.0	0.3	120.0	0	Open
P0105	A05	A12	1173.0	0.4	140.0	0	Open
P0106	A05	A16	2482.0	0.5	120.0	0	Open
P0107	A05	A20	838.0	0.6	140.0	0	Open
P0108	A06	A15	1117.0	0.5	140.0	0	Open
P0109	A06	A17	1252.0	0.4	120.0	0	Open
P0110	A07	A11	803.0	0.4	120.0	0	Open
P0111	A07	A15	2048.0	0.4	130.0	0	Open
P0112	A07	A19	1618.0	0.4	140.0	0	Open
P0113	A07	A20	2486.0	0.5	140.0	0	Open
P0114	A09	A11	1295.0	0.3	140.0	0	Open
P0115	A09	A12	969.0	0.5	130.0	0	Open
P0116	A09	A17	2101.0	0.3	130.0	0	Open
P0117	A09	A20	1429.0	0.6	140.0	0	Open
P0118	A10	A14	1078.0	0.3	120.0	0	Open
P0119	A10	A15	1702.0	0.6	140.0	0	Open
P0120	A11	A12	1430.0	0.5	120.0	0	Open
P0121	A11	A13	1139.0	0.3	140.0	0	Open
P0122	A11	A14	1090.0	0.5	130.0	0	Open
P0123	A11	A19	1351.0	0.6	130.0	0	Open
P0124	A12	A13	1512.0	0.6	120.0	0	Open
P0125	A12	A18	2068.0	0.6	120.0	0	Open
P0126	A12	A19	2336.0	0.4	130.0	0	Open
P0127	A13	A14	1076.0	0.4	130.0	0	Open
P0128	A13	A18	2322.0	0.4	120.0	0	Open
P0129	A13	A19	2466.0	0.5	140.0	0	Open
P0130	A14	A16	1651.0	0.3	120.0	0	Open
P0131	A14	A19	872.0	0.3	130.0	0	Open
P0132	A14	A20	1286.0	0.6	120.0	0	Open
P0133	A15	A18	939.0	0.6	120.0	0	Open
P0134	A16	A20	1509.0	0.3	120.0	0	Open
P0135	A01	A01_1	418.0	0.4	120.0	0	Open
P0136	A01	A01_2	430.0	0.4	130.0	0	Open
P0137	A01_1	A01_2	433.0	0.4	120.0	0	Open
P0138	A01_1	A01_3	289.0	0.2	120.0	0	Open
P0139	A01_1	A01_4	683.0	0.2	120.0	0	Open
P0140	A01_2	A01_3	363.0	0.25	140.0	0	Open
P0141	A01_2	A01_4	673.0	0.3	120.0	0	Open
P0142	A02	A02_2	740.0	0.25	140.0	0	Open
P0143	A03_1	A03_3	789.0	0.3	120.0	0	Open
P0144	A05	A05_1	692.0	0.25	120.0	0	Open
P0145	A05	A05_2	222.0	0.25	120.0	0	Open
P0146	A05_1	A05_2	475.0	0.3	120.0	0	Open
P0147	A06	A06_2	770.0	0.2	120.0	0	Open
P0148	A06	A06_3	479.0	0.25	130.0	0	Open
P0149	A06_1	A06_3	413.0	0.2	130.0	0	Open
P0150	A06_2	A06_4	280.0	0.3	140.0	0	Open
P0151	A08	A08_3	438.0	0.4	140.0	0	Open
P0152	A08_1	A08_2	675.0	0.2	130.0	0	Open
P0153	A08_1	A08_3	534.0	0.25	120.0	0	Open
P0154	A08_2	A08_3	288.0	0.25	140.0	0	Open
P0155	A09	A09_2	397.0	0.3	120.0	0	Open
P0156	A09_1	A09_2	782.0	0.25	140.0	0	Open
P0157	A11	A11_1	659.0	0.25	130.0	0	Open
P0158	A11	A11_4	594.0	0.2	120.0	0	Open
P0159	A11_1	A11_3	519.0	0.3	120.0	0	Open
P0160	A11_2	A11_3	526.0	0.2	130.0	0	Open
P0161	A11_2	A11_4	530.0	0.25	140.0	0	Open
P0162	A11_3	A11_4	310.0	0.3	140.0	0	Open
P0163	A12_1	A12_3	260.0	0.3	140.0	0	Open
P0164	A13	A13_1	522.0	0.3	140.0	0	Open
P0165	A13	A13_2	751.0	0.3	140.0	0	Open
P0166	A13_1	A13_2	215.0	0.3	130.0	0	Open
P0167	A14	A14_2	301.0	0.4	140.0	0	Open
P0168	A14	A14_4	563.0	0.2	130.0	0	Open
P0169	A14_1	A14_3	510.0	0.2	120.0	0	Open
P0170	A14_1	A14_4	420.0	0.3	120.0	0	Open
P0171	A14_2	A14_3	352.0	0.3	130.0	0	Open
P0172	A14_2	A14_4	318.0	0.2	140.0	0	Open
P0173	A14_3	A14_4	358.0	0.2	120.0	0	Open
P0174	A15	A15_3	364.0	0.3	120.0	0	Open
P0175	A15_1	A15_3	364.0	0.25	120.0	0	Open
P0176	A16	A16_1	475.0	0.25	140.0	0	Open
P0177	A16	A16_2	656.0	0.2	140.0	0	Open
P0178	A16	A16_3	315.0	0.3	120.0	0	Open
P0179	A16_1	A16_2	564.0	0.2	140.0	0	Open
P0180	A16_1	A16_3	708.0	0.3	130.0	0	Open
P0181	A17	A17_1	707.0	0.4	130.0	0	Open
P0182	A17	A17_2	290.0	0.2	140.0	0	Open
P0183	A17_1	A17_2	695.0	0.25	140.0	0	Open
P0184	A17_1	A17_4	729.0	0.4	120.0	0	Open
P0185	A17_3	A17_4	639.0	0.3	140.0	0	Open
P0186	A18	A18_1	765.0	0.3	120.0	0	Open
P0187	A18_1	A18_2	264.0	0.25	120.0	0	Open
P0188	A19	A19_2	663.0	0.3	140.0	0	Open
P0189	A19_1	A19_2	494.0	0.4	120.0	0	Open
P0190	A19_1	A19_3	552.0	0.25	130.0	0	Open
P0191	A20	A20_2	578.0	0.4	140.0	0	Open
P0192	A20_1	A20_3	357.0	0.3	130.0	0	Open
P0193	A20_1	A20_4	753.0	0.2	140.0	0	Open
P0194	A20_2	A20_3	297.0	0.3	140.0	0	Open
P0195	A20_3	A20_4	739.0	0.2	130.0	0	Open

[OPTIONS]
UNITS	LPS
HEADLOSS	H-W

[TIMES]
DURATION	0

[REPORT]
STATUS	NO

[END]