[TITLE]
Test réseau simple pour validation Hardy-Cross

[OPTIONS]
Units LPS
Headloss H-W
Trials 40
Accuracy 0.001
Tolerance 0.001
Unbalanced Continue 10

[JUNCTIONS]
;ID               Elevation  Demand  Pattern
J1                100        0       None
J2                95         10      None
J3                90         5       None

[RESERVOIRS]
;ID               Head  Pattern
R1                120   None

[PIPES]
;ID               Node1  Node2  Length  Diameter  Roughness  MinorLoss  Status
P1                R1     J1     100     0.2       100       0           Open
P2                J1     J2     150     0.15      100       0           Open
P3                J2     J3     200     0.1       100       0           Open

[PATTERNS]
;ID               Multipliers
Pattern1          1.0

[END]
