; Filename: src\lcpi\aep\PROTOTYPE\INP\bismark-Administrator.inp
; WNTR: 1.3.2
; Created: 2025-08-20 18:08:37
[TITLE]

[JUNCTIONS]
;ID                      Elevation       Demand Pattern                 
 N1                                12    1.2038708126                            ;
 N2                                16    1.6203758804                            ;
 N3                                13    2.5161470538                            ;
 N4                                16    1.7915423467                            ;
 N5                                19     1.186754166                            ;
 N6                                18   0.96423775984                            ;
 N7                                16    3.1323463322                            ;
 N8                                17    1.7744257001                            ;
 N9                                15    2.1452863769                            ;
 N10                               16    2.1224641814                            ;
 N11                               17    2.2879250988                            ;
 N12                               14    4.3362171448                            ;
 N13                               13     5.009471912                            ;
 N14                               15    6.5043257172                            ;
 N15                                9    7.3658635973                            ;
 N16                                8     5.192049476                            ;
 N17                               17    4.8896553857                            ;
 N18                               12   0.85012678234                            ;
 N19                               14   0.66184366947                            ;
 N20                               22    0.7246047071                            ;
 N21                               13    1.4891482563                            ;
 N22                               11    1.5290870984                            ;
 N23                               12   0.94712111321                            ;
 N24                               18   0.95282666209                            ;
 N25                                9   0.86153788009                            ;
 N26                               13   0.86724342896                            ;
 N27                               20   0.89006562446                            ;
 N28                               12   0.88436007559                            ;
 N29                               16   0.82730458684                            ;
 N30                               15     1.865714482                            ;
 N31                               15     3.371979385                            ;
 N32                               18    1.6317869782                            ;
 N33                               12    1.3636261811                            ;
 N34                                8   0.86153788009                            ;
 N35                               13   0.81018794022                            ;
 N36                               18   0.87865452671                            ;
 N37                               14    1.0384098952                            ;
 N38                               15     1.095465384                            ;
 N39                               12    1.0155876997                            ;
 N40                               10    1.4263872187                            ;
 N41                               15    1.4320927676                            ;
 N42                               11    2.5275581515                            ;
 N43                               11    3.2635739564                            ;
 N44                               16    3.1095241367                            ;
 N45                               12    2.2879250988                            ;
 N46                               11      2.68731352                            ;
 N47                               13    3.8911843326                            ;
 N48                                9    4.5758501976                            ;
 N49                               10    3.1152296856                            ;
 N50                               14    1.9227699708                            ;
 N51                                9    2.1509919258                            ;
 N52                               10    1.8086589933                            ;
 N53                               15    1.6260814293                            ;
 N54                               15    1.5290870984                            ;
 N55                               12   0.87865452671                            ;
 N56                               13   0.87294897784                            ;
 N57                               20   0.63902147397                            ;
 N58                               17   0.38797732348                            ;
 N59                               16    0.6333159251                            ;
 N60                               15   0.74172135372                            ;
 N61                                8   0.70748806047                            ;
 N62                                8   0.74742690259                            ;
 N63                               14    1.5633203917                            ;
 N64                               10    1.6489036248                            ;
 N65                               10   0.78736574472                            ;
 N66                               12   0.62761037622                            ;
 N67                                9   0.82730458684                            ;
 N68                               11    1.7230757602                            ;
 N69                                9     3.189401821                            ;
 N70                               12    4.2791616561                            ;
 N71                                8    4.5359113554                            ;
 N72                                5   0.97564885758                            ;
 N73                               11   0.95282666209                            ;
 N74                                8     1.004176602                            ;
 N75                               13    1.0098821508                            ;
 N76                               10   0.93571001546                            ;
 N77                               13   0.89006562446                            ;
 N78                               11    1.3579206322                            ;
 N79                               15    1.3008651434                            ;
 N80                               18   0.85583233121                            ;
 N81                               16    1.3465095344                            ;
 N82                               13    1.2552207524                            ;
 N83                               13    1.2951595946                            ;
 N84                               14    1.5176760007                            ;
 N85                               12   0.95853221096                            ;
 N86                                8   0.85583233121                            ;
 N87                               14     1.865714482                            ;
 N88                               13    1.7858367978                            ;
 N89                               16   0.59337708298                            ;
 N90                               16    1.3807428277                            ;
 N91                               11    1.8828311287                            ;
 N92                                9    1.3693317299                            ;
 N93                               15    1.1354042261                            ;
 N94                               16   0.92429891771                            ;
 N95                               13    1.8371867377                            ;
 N96                               14    2.0768197904                            ;
 N97                               10    1.3921539254                            ;
 N98                               12    1.5176760007                            ;
 N99                               13    3.4860903625                            ;
 N100                              13    2.5218526026                            ;
 N101                               6    1.2894540457                            ;
 N102                              10   0.73601580484                            ;
 N103                              14   0.44503281223                            ;
 N104                              14   0.43362171448                            ;
 N105                              15   0.65043257172                            ;
 N106                              14    3.0809963924                            ;
 N107                               9     1.820070091                            ;
 N108                              16    1.4263872187                            ;
 N109                              16    2.3335694898                            ;
 N110                              16    1.9455921663                            ;
 N111                              16    1.6717258203                            ;
 N112                               9    1.7573090534                            ;
 N113                              13   0.87294897784                            ;
 N114                               9    1.8257756399                            ;
 N115                              13    1.7230757602                            ;
 N116                              15   0.78166019584                            ;
 N117                               8    1.6317869782                            ;
 N118                              16    1.9627088129                            ;
 N119                               8    2.1966363168                            ;
 N120                              13    1.7458979557                            ;
 N121                              12    1.6317869782                            ;
 N122                               8    1.5119704518                            ;
 N123                              15    2.3278639409                            ;
 N124                              16    2.3620972342                            ;
 N125                              14    3.2008129187                            ;
 N126                              13    3.4404459715                            ;
 N127                              13    3.7257234152                            ;
 N128                              11    2.7386634599                            ;
 N129                              15    2.1224641814                            ;
 N130                              10   0.89577117334                            ;
 N131                              10    1.0441154441                            ;
 N132                               4    1.4720316097                            ;
 N133                              13    1.1639319705                            ;
 N134                              11   0.83871568459                            ;
 N135                              12    1.0327043463                            ;
 N136                               5    3.3206294451                            ;
 N137                              15    3.8512454905                            ;
 N138                              15    3.3377460917                            ;
 N139                              18    2.5674969936                            ;
 N140                              19    2.2251640612                            ;
 N141                              17    1.7687201512                            ;
 N142                              15     3.006824257                            ;
 N143                              15    2.9326521216                            ;
 N144                              15    1.1525208727                            ;
 N145                              13    1.6146703316                            ;
 N146                              11    2.1795196702                            ;
 N147                              15    1.6203758804                            ;
 N148                              10    1.4948538052                            ;
 N149                               6   0.69037141385                            ;
 N150                               9   0.37086067686                            ;
 N151                              11   0.47926610548                            ;
 N152                              10   0.78736574472                            ;
 N153                               7   0.94712111321                            ;
 N154                               4   0.65043257172                            ;
 N155                              11   0.94712111321                            ;
 N156                               9    1.2209874592                            ;
 N157                              10   0.91288781996                            ;
 N158                              11   0.90147672221                            ;
 N159                               8   0.95282666209                            ;
 N160                              12   0.92429891771                            ;
 N161                              10    1.3065706923                            ;
 N162                               6    1.1696375193                            ;
 N163                               7   0.50779384985                            ;
 N164                               6    0.7017825116                            ;
 N165                              13     1.049820993                            ;
 N166                               9    1.8885366775                            ;
 N167                              10     2.139580828                            ;
 N168                              10    1.5633203917                            ;
 N169                              11    1.3293928878                            ;
 N170                               9    1.0441154441                            ;
 N171                              13   0.95853221096                            ;
 N172                              13    1.0155876997                            ;
 N173                              11   0.76454354922                            ;
 N174                               8   0.50208830098                            ;
 N175                               9   0.62190482735                            ;
 N176                              10   0.65043257172                            ;
 N177                              14   0.38227177461                            ;
 N178                              12   0.43932726336                            ;
 N179                              13   0.81018794022                            ;
 N180                              11    1.0783487373                            ;
 N181                               8    1.1125820306                            ;
 N182                               9   0.95853221096                            ;
 N183                              14   0.91859336884                            ;
 N184                              19    1.4720316097                            ;
 N185                              11    1.9627088129                            ;
 N186                               9    1.9284755197                            ;
 N187                              11    1.7287813091                            ;
 N188                               6    2.2651029033                            ;
 N189                              12    2.9668854149                            ;
 N190                               4    2.4533860161                            ;
 N191                               8    1.2552207524                            ;
 N192                              10    3.4746792647                            ;
 N193                              10    2.9668854149                            ;
 N194                               8    2.0140587528                            ;
 N195                              10    1.3122762412                            ;
 N196                              13   0.82159903797                            ;

[RESERVOIRS]
;ID                                   Head                  Pattern

[TANKS]
;ID                              Elevation           Init Level            Min Level            Max Level             Diameter           Min Volume Volume Curve         Overflow            
 R1                                27             4.5               0             4.5               5              10                                             ;
 R2                                32             5.2               0             5.2               7              10                                             ;
 R3                                50              32               0              32              17              10                                             ;

[PIPES]
;ID                   Node1                Node2                              Length             Diameter            Roughness           Minor Loss               Status
 N142_N143            N142                 N143                 0.0038589430333             315           0.009               0                 Open   ;
 N144_N145            N144                 N145                 0.0010362141873             315           0.009               0                 Open   ;
 N143_N144            N143                 N144                 0.00078216753037             315           0.009               0                 Open   ;
 N145_N146            N145                 N146                 0.0015192860791             315           0.009               0                 Open   ;
 N146_N147            N146                 N147                 0.0019359173277             315           0.009               0                 Open   ;
 N149_N150            N149                 N150                 0.00027554069011             315           0.009               0                 Open   ;
 N150_N151            N150                 N151                 0.00031664582597             315           0.009               0                 Open   ;
 N151_N152            N151                 N152                 0.00044167166783             315           0.009               0                 Open   ;
 N152_N153            N152                 N153                 0.00080115154446             315           0.009               0                 Open   ;
 N154_N155            N154                 N155                 0.00033785702151             315           0.009               0                 Open   ;
 N153_N154            N153                 N154                 0.00069408866524             315           0.009               0                 Open   ;
 N155_N156            N155                 N156                 0.0011638712326             315           0.009               0                 Open   ;
 N156_N157            N156                 N157                 0.00077095492702             315           0.009               0                 Open   ;
 N157_N158            N157                 N158                 0.00067597616706             315           0.009               0                 Open   ;
 N158_N159            N158                 N159                 0.00075300854791             315           0.009               0                 Open   ;
 N159_N160            N159                 N160                 0.00076295047303             315           0.009               0                 Open   ;
 N160_N161            N160                 N161                 0.00070207309554             315           0.009               0                 Open   ;
 N161_N162            N161                 N162                 0.0013613034792             315           0.009               0                 Open   ;
 N162_N163            N162                 N163                 0.00048918540057             315           0.009               0                 Open   ;
 N163_N164            N163                 N164                 0.00031324174868             315           0.009               0                 Open   ;
 N164_N165            N164                 N165                 0.00079918274573             315           0.009               0                 Open   ;
 N83_N82              N83                  N82                  0.0013783895945             315           0.009               0                 Open   ;
 N122_N123            N122                 N123                 0.0017477681496             315           0.009               0                 Open   ;
 N123_N124            N123                 N124                 0.0019479904902             315           0.009               0                 Open   ;
 N124_N125            N124                 N125                 0.0018023885451             315           0.009               0                 Open   ;
 N125_N126            N125                 N126                 0.0032712732375             315           0.009               0                 Open   ;
 N136_N137            N136                 N137                 0.0032529995219             315           0.009               0                 Open   ;
 N137_N138            N137                 N138                  0.002845423007             315           0.009               0                 Open   ;
 N139_N140            N139                 N140                 0.0016241271356             315           0.009               0                 Open   ;
 N138_N139            N138                 N139                 0.0024378335133             315           0.009               0                 Open   ;
 N140_N141            N140                 N141                 0.0019010079218             315           0.009               0                 Open   ;
 N141_N142            N141                 N142                 0.00090026889748             315           0.009               0                 Open   ;
 N147_N148            N147                 N148                 0.00063576382317             315           0.009               0                 Open   ;
 N148_N149            N148                 N149                 0.00082228688923             315           0.009               0                 Open   ;
 N148_N166            N148                 N166                 0.00091247412879             315           0.009               0                 Open   ;
 N166_N167            N166                 N167                 0.0020802966654             315           0.009               0                 Open   ;
 N168_N169            N168                 N169                 0.0011699050053             315           0.009               0                 Open   ;
 N167_N168            N167                 N168                 0.0013081752518             315           0.009               0                 Open   ;
 N169_N170            N169                 N170                 0.00094264168834             315           0.009               0                 Open   ;
 N170_N171            N170                 N171                 0.00071512915042             315           0.009               0                 Open   ;
 N171_N172            N171                 N172                 0.00080602276036             315           0.009               0                 Open   ;
 N172_N173            N172                 N173                 0.00080250993648             315           0.009               0                 Open   ;
 N173_N174            N173                 N174                 0.00040920989017             315           0.009               0                 Open   ;
 N174_N175            N174                 N175                 0.00038904781796             315           0.009               0                 Open   ;
 N176_N177            N176                 N177                 0.00043481473976             315           0.009               0                 Open   ;
 N175_N176            N175                 N176                 0.00060004291273             315           0.009               0                 Open   ;
 N177_N178            N177                 N178                 0.00017147589462             315           0.009               0                 Open   ;
 N178_N179            N178                 N179                 0.00052857486915             315           0.009               0                 Open   ;
 N179_N180            N179                 N180                 0.00075914203681             315           0.009               0                 Open   ;
 N180_N181            N180                 N181                 0.00094970330349             315           0.009               0                 Open   ;
 N181_N182            N181                 N182                 0.00081469747234             315           0.009               0                 Open   ;
 N182_N183            N182                 N183                 0.00070767576389             315           0.009               0                 Open   ;
 N183_N184            N183                 N184                 0.00075370770195             315           0.009               0                 Open   ;
 N184_N185            N184                 N185                 0.0015804552668             315           0.009               0                 Open   ;
 N185_N186            N185                 N186                 0.0015279914538             315           0.009               0                 Open   ;
 N186_N187            N186                 N187                 0.0015287010922             315           0.009               0                 Open   ;
 N187_N188            N187                 N188                 0.0012114681429             315           0.009               0                 Open   ;
 N188_N189            N188                 N189                 0.0023742582587             315           0.009               0                 Open   ;
 N189_N190            N189                 N190                 0.0023195559132             315           0.009               0                 Open   ;
 N190_N191            N190                 N191                 0.0015669267095             315           0.009               0                 Open   ;
 N71_N70              N71                  N70                  0.0052814506583             315           0.009               0                 Open   ;
 N68_N67              N68                  N67                  0.00090680421481             315           0.009               0                 Open   ;
 N67_N66              N67                  N66                  0.00040575963077             315           0.009               0                 Open   ;
 N66_N65              N66                  N65                  0.00058512987631             315           0.009               0                 Open   ;
 N65_N64              N65                  N64                  0.00066020034638             315           0.009               0                 Open   ;
 N64_N63              N64                  N63                  0.0019534542478             315           0.009               0                 Open   ;
 N63_N62              N63                  N62                  0.00052520129723             315           0.009               0                 Open   ;
 N62_N61              N62                  N61                  0.00066081357413             315           0.009               0                 Open   ;
 N60_N59              N60                  N59                  0.00071394155621             315           0.009               0                 Open   ;
 N61_N60              N61                  N60                  0.00045811744577             315           0.009               0                 Open   ;
 N59_N58              N59                  N58                  0.00029369548469             315           0.009               0                 Open   ;
 N58_N57              N58                  N57                  0.00032912522593             315           0.009               0                 Open   ;
 N57_N56              N57                  N56                  0.00068656698492             315           0.009               0                 Open   ;
 N56_N55              N56                  N55                  0.00069669214639             315           0.009               0                 Open   ;
 N55_N54              N55                  N54                  0.00069909040527             315           0.009               0                 Open   ;
 N54_N53              N54                  N53                  0.0017297347819             315           0.009               0                 Open   ;
 N53_N52              N53                  N52                  0.00085169552484             315           0.009               0                 Open   ;
 N72_N73              N72                  N73                  0.00072256124689             315           0.009               0                 Open   ;
 N74_N75              N74                  N75                  0.00080425994205             315           0.009               0                 Open   ;
 N73_N74              N73                  N74                  0.0007891848758             315           0.009               0                 Open   ;
 N75_N76              N75                  N76                  0.0007964807268             315           0.009               0                 Open   ;