; Filename: C:\Users\prota\AppData\Local\Temp\tmpv2d6_1fg.demand_override.inp
; WNTR: 1.3.2
; Created: 2025-08-25 14:46:46
[TITLE]

[JUNCTIONS]
;ID                      Elevation       Demand Pattern                 
 N1                                12           2.551                            ;
 N2                                16           2.551                            ;
 N3                                13           2.551                            ;
 N4                                16           2.551                            ;
 N5                                19           2.551                            ;
 N6                                18           2.551                            ;
 N7                                16           2.551                            ;
 N8                                17           2.551                            ;
 N9                                15           2.551                            ;
 N10                               16           2.551                            ;
 N11                               17           2.551                            ;
 N12                               14           2.551                            ;
 N13                               13           2.551                            ;
 N14                               15           2.551                            ;
 N15                                9           2.551                            ;
 N16                                8           2.551                            ;
 N17                               17           2.551                            ;
 N18                               12           2.551                            ;
 N19                               14           2.551                            ;
 N20                               22           2.551                            ;
 N21                               13           2.551                            ;
 N22                               11           2.551                            ;
 N23                               12           2.551                            ;
 N24                               18           2.551                            ;
 N25                                9           2.551                            ;
 N26                               13           2.551                            ;
 N27                               20           2.551                            ;
 N28                               12           2.551                            ;
 N29                               16           2.551                            ;
 N30                               15           2.551                            ;
 N31                               15           2.551                            ;
 N32                               18           2.551                            ;
 N33                               12           2.551                            ;
 N34                                8           2.551                            ;
 N35                               13           2.551                            ;
 N36                               18           2.551                            ;
 N37                               14           2.551                            ;
 N38                               15           2.551                            ;
 N39                               12           2.551                            ;
 N40                               10           2.551                            ;
 N41                               15           2.551                            ;
 N42                               11           2.551                            ;
 N43                               11           2.551                            ;
 N44                               16           2.551                            ;
 N45                               12           2.551                            ;
 N46                               11           2.551                            ;
 N47                               13           2.551                            ;
 N48                                9           2.551                            ;
 N49                               10           2.551                            ;
 N50                               14           2.551                            ;
 N51                                9           2.551                            ;
 N52                               10           2.551                            ;
 N53                               15           2.551                            ;
 N54                               15           2.551                            ;
 N55                               12           2.551                            ;
 N56                               13           2.551                            ;
 N57                               20           2.551                            ;
 N58                               17           2.551                            ;
 N59                               16           2.551                            ;
 N60                               15           2.551                            ;
 N61                                8           2.551                            ;
 N62                                8           2.551                            ;
 N63                               14           2.551                            ;
 N64                               10           2.551                            ;
 N65                               10           2.551                            ;
 N66                               12           2.551                            ;
 N67                                9           2.551                            ;
 N68                               11           2.551                            ;
 N69                                9           2.551                            ;
 N70                               12           2.551                            ;
 N71                                8           2.551                            ;
 N72                                5           2.551                            ;
 N73                               11           2.551                            ;
 N74                                8           2.551                            ;
 N75                               13           2.551                            ;
 N76                               10           2.551                            ;
 N77                               13           2.551                            ;
 N78                               11           2.551                            ;
 N79                               15           2.551                            ;
 N80                               18           2.551                            ;
 N81                               16           2.551                            ;
 N82                               13           2.551                            ;
 N83                               13           2.551                            ;
 N84                               14           2.551                            ;
 N85                               12           2.551                            ;
 N86                                8           2.551                            ;
 N87                               14           2.551                            ;
 N88                               13           2.551                            ;
 N89                               16           2.551                            ;
 N90                               16           2.551                            ;
 N91                               11           2.551                            ;
 N92                                9           2.551                            ;
 N93                               15           2.551                            ;
 N94                               16           2.551                            ;
 N95                               13           2.551                            ;
 N96                               14           2.551                            ;
 N97                               10           2.551                            ;
 N98                               12           2.551                            ;
 N99                               13           2.551                            ;
 N100                              13           2.551                            ;
 N101                               6           2.551                            ;
 N102                              10           2.551                            ;
 N103                              14           2.551                            ;
 N104                              14           2.551                            ;
 N105                              15           2.551                            ;
 N106                              14           2.551                            ;
 N107                               9           2.551                            ;
 N108                              16           2.551                            ;
 N109                              16           2.551                            ;
 N110                              16           2.551                            ;
 N111                              16           2.551                            ;
 N112                               9           2.551                            ;
 N113                              13           2.551                            ;
 N114                               9           2.551                            ;
 N115                              13           2.551                            ;
 N116                              15           2.551                            ;
 N117                               8           2.551                            ;
 N118                              16           2.551                            ;
 N119                               8           2.551                            ;
 N120                              13           2.551                            ;
 N121                              12           2.551                            ;
 N122                               8           2.551                            ;
 N123                              15           2.551                            ;
 N124                              16           2.551                            ;
 N125                              14           2.551                            ;
 N126                              13           2.551                            ;
 N127                              13           2.551                            ;
 N128                              11           2.551                            ;
 N129                              15           2.551                            ;
 N130                              10           2.551                            ;
 N131                              10           2.551                            ;
 N132                               4           2.551                            ;
 N133                              13           2.551                            ;
 N134                              11           2.551                            ;
 N135                              12           2.551                            ;
 N136                               5           2.551                            ;
 N137                              15           2.551                            ;
 N138                              15           2.551                            ;
 N139                              18           2.551                            ;
 N140                              19           2.551                            ;
 N141                              17           2.551                            ;
 N142                              15           2.551                            ;
 N143                              15           2.551                            ;
 N144                              15           2.551                            ;
 N145                              13           2.551                            ;
 N146                              11           2.551                            ;
 N147                              15           2.551                            ;
 N148                              10           2.551                            ;
 N149                               6           2.551                            ;
 N150                               9           2.551                            ;
 N151                              11           2.551                            ;
 N152                              10           2.551                            ;
 N153                               7           2.551                            ;
 N154                               4           2.551                            ;
 N155                              11           2.551                            ;
 N156                               9           2.551                            ;
 N157                              10           2.551                            ;
 N158                              11           2.551                            ;
 N159                               8           2.551                            ;
 N160                              12           2.551                            ;
 N161                              10           2.551                            ;
 N162                               6           2.551                            ;
 N163                               7           2.551                            ;
 N164                               6           2.551                            ;
 N165                              13           2.551                            ;
 N166                               9           2.551                            ;
 N167                              10           2.551                            ;
 N168                              10           2.551                            ;
 N169                              11           2.551                            ;
 N170                               9           2.551                            ;
 N171                              13           2.551                            ;
 N172                              13           2.551                            ;
 N173                              11           2.551                            ;
 N174                               8           2.551                            ;
 N175                               9           2.551                            ;
 N176                              10           2.551                            ;
 N177                              14           2.551                            ;
 N178                              12           2.551                            ;
 N179                              13           2.551                            ;
 N180                              11           2.551                            ;
 N181                               8           2.551                            ;
 N182                               9           2.551                            ;
 N183                              14           2.551                            ;
 N184                              19           2.551                            ;
 N185                              11           2.551                            ;
 N186                               9           2.551                            ;
 N187                              11           2.551                            ;
 N188                               6           2.551                            ;
 N189                              12           2.551                            ;
 N190                               4           2.551                            ;
 N191                               8           2.551                            ;
 N192                              10           2.551                            ;
 N193                              10           2.551                            ;
 N194                               8           2.551                            ;
 N195                              10           2.551                            ;
 N196                              13           2.551                            ;

[RESERVOIRS]
;ID                                   Head                  Pattern

[TANKS]
;ID                              Elevation           Init Level            Min Level            Max Level             Diameter           Min Volume Volume Curve         Overflow            
 R1                                27             4.5               0             4.5               5              10                                             ;
 R2                                32             5.2               0             5.2               7              10                                             ;
 R3                                50              32               0              32              17              10                                             ;

[PIPES]
;ID                   Node1                Node2                              Length             Diameter            Roughness           Minor Loss               Status
 N142_N143            N142                 N143                 0.0038589430333             250           0.009               0                 Open   ;
 N144_N145            N144                 N145                 0.0010362141873             250           0.009               0                 Open   ;
 N143_N144            N143                 N144                 0.00078216753037             250           0.009               0                 Open   ;
 N145_N146            N145                 N146                 0.0015192860791             250           0.009               0                 Open   ;
 N146_N147            N146                 N147                 0.0019359173277             250           0.009               0                 Open   ;
 N149_N150            N149                 N150                 0.00027554069011             250           0.009               0                 Open   ;
 N150_N151            N150                 N151                 0.00031664582597             250           0.009               0                 Open   ;
 N151_N152            N151                 N152                 0.00044167166783             250           0.009               0                 Open   ;
 N152_N153            N152                 N153                 0.00080115154446             250           0.009               0                 Open   ;
 N154_N155            N154                 N155                 0.00033785702151             250           0.009               0                 Open   ;
 N153_N154            N153                 N154                 0.00069408866524             250           0.009               0                 Open   ;
 N155_N156            N155                 N156                 0.0011638712326             250           0.009               0                 Open   ;
 N156_N157            N156                 N157                 0.00077095492702             250           0.009               0                 Open   ;
 N157_N158            N157                 N158                 0.00067597616706             250           0.009               0                 Open   ;
 N158_N159            N158                 N159                 0.00075300854791             250           0.009               0                 Open   ;
 N159_N160            N159                 N160                 0.00076295047303             250           0.009               0                 Open   ;
 N160_N161            N160                 N161                 0.00070207309554             250           0.009               0                 Open   ;
 N161_N162            N161                 N162                 0.0013613034792             250           0.009               0                 Open   ;
 N162_N163            N162                 N163                 0.00048918540057             250           0.009               0                 Open   ;
 N163_N164            N163                 N164                 0.00031324174868             250           0.009               0                 Open   ;
 N164_N165            N164                 N165                 0.00079918274573             250           0.009               0                 Open   ;
 N83_N82              N83                  N82                  0.0013783895945             250           0.009               0                 Open   ;
 N122_N123            N122                 N123                 0.0017477681496             250           0.009               0                 Open   ;
 N123_N124            N123                 N124                 0.0019479904902             250           0.009               0                 Open   ;
 N124_N125            N124                 N125                 0.0018023885451             250           0.009               0                 Open   ;
 N125_N126            N125                 N126                 0.0032712732375             250           0.009               0                 Open   ;
 N136_N137            N136                 N137                 0.0032529995219             250           0.009               0                 Open   ;
 N137_N138            N137                 N138                  0.002845423007             250           0.009               0                 Open   ;
 N139_N140            N139                 N140                 0.0016241271356             250           0.009               0                 Open   ;
 N138_N139            N138                 N139                 0.0024378335133             250           0.009               0                 Open   ;
 N140_N141            N140                 N141                 0.0019010079218             250           0.009               0                 Open   ;
 N141_N142            N141                 N142                 0.00090026889748             250           0.009               0                 Open   ;
 N147_N148            N147                 N148                 0.00063576382317             250           0.009               0                 Open   ;
 N148_N149            N148                 N149                 0.00082228688923             250           0.009               0                 Open   ;
 N148_N166            N148                 N166                 0.00091247412879             250           0.009               0                 Open   ;
 N166_N167            N166                 N167                 0.0020802966654             250           0.009               0                 Open   ;
 N168_N169            N168                 N169                 0.0011699050053             250           0.009               0                 Open   ;
 N167_N168            N167                 N168                 0.0013081752518             250           0.009               0                 Open   ;
 N169_N170            N169                 N170                 0.00094264168834             250           0.009               0                 Open   ;
 N170_N171            N170                 N171                 0.00071512915042             250           0.009               0                 Open   ;
 N171_N172            N171                 N172                 0.00080602276036             250           0.009               0                 Open   ;
 N172_N173            N172                 N173                 0.00080250993648             250           0.009               0                 Open   ;
 N173_N174            N173                 N174                 0.00040920989017             250           0.009               0                 Open   ;
 N174_N175            N174                 N175                 0.00038904781796             250           0.009               0                 Open   ;
 N176_N177            N176                 N177                 0.00043481473976             250           0.009               0                 Open   ;
 N175_N176            N175                 N176                 0.00060004291273             200           0.009               0                 Open   ;
 N177_N178            N177                 N178                 0.00017147589462             200           0.009               0                 Open   ;
 N178_N179            N178                 N179                 0.00052857486915             200           0.009               0                 Open   ;
 N179_N180            N179                 N180                 0.00075914203681             200           0.009               0                 Open   ;
 N180_N181            N180                 N181                 0.00094970330349             200           0.009               0                 Open   ;
 N181_N182            N181                 N182                 0.00081469747234             200           0.009               0                 Open   ;
 N182_N183            N182                 N183                 0.00070767576389             200           0.009               0                 Open   ;
 N183_N184            N183                 N184                 0.00075370770195             200           0.009               0                 Open   ;
 N184_N185            N184                 N185                 0.0015804552668             200           0.009               0                 Open   ;
 N185_N186            N185                 N186                 0.0015279914538             200           0.009               0                 Open   ;
 N186_N187            N186                 N187                 0.0015287010922             200           0.009               0                 Open   ;
 N187_N188            N187                 N188                 0.0012114681429             200           0.009               0                 Open   ;
 N188_N189            N188                 N189                 0.0023742582587             200           0.009               0                 Open   ;
 N189_N190            N189                 N190                 0.0023195559132             200           0.009               0                 Open   ;
 N190_N191            N190                 N191                 0.0015669267095             200           0.009               0                 Open   ;
 N71_N70              N71                  N70                  0.0052814506583             200           0.009               0                 Open   ;
 N68_N67              N68                  N67                  0.00090680421481             200           0.009               0                 Open   ;
 N67_N66              N67                  N66                  0.00040575963077             200           0.009               0                 Open   ;
 N66_N65              N66                  N65                  0.00058512987631             200           0.009               0                 Open   ;
 N65_N64              N65                  N64                  0.00066020034638             200           0.009               0                 Open   ;
 N64_N63              N64                  N63                  0.0019534542478             200           0.009               0                 Open   ;
 N63_N62              N63                  N62                  0.00052520129723             200           0.009               0                 Open   ;
 N62_N61              N62                  N61                  0.00066081357413             200           0.009               0                 Open   ;
 N60_N59              N60                  N59                  0.00071394155621             200           0.009               0                 Open   ;
 N61_N60              N61                  N60                  0.00045811744577             200           0.009               0                 Open   ;
 N59_N58              N59                  N58                  0.00029369548469             200           0.009               0                 Open   ;
 N58_N57              N58                  N57                  0.00032912522593             200           0.009               0                 Open   ;
 N57_N56              N57                  N56                  0.00068656698492             200           0.009               0                 Open   ;
 N56_N55              N56                  N55                  0.00069669214639             200           0.009               0                 Open   ;
 N55_N54              N55                  N54                  0.00069909040527             200           0.009               0                 Open   ;
 N54_N53              N54                  N53                  0.0017297347819             200           0.009               0                 Open   ;
 N53_N52              N53                  N52                  0.00085169552484             200           0.009               0                 Open   ;
 N72_N73              N72                  N73                  0.00072256124689             200           0.009               0                 Open   ;
 N74_N75              N74                  N75                  0.00080425994205             200           0.009               0                 Open   ;
 N73_N74              N73                  N74                  0.0007891848758             200           0.009               0                 Open   ;
 N75_N76              N75                  N76                  0.0007964807268             200           0.009               0                 Open   ;